data_graphene331
_audit_creation_date              2022-06-17
_audit_creation_method            'Materials Studio'
_symmetry_space_group_name_H-M    'P1'
_symmetry_Int_Tables_number       1
_symmetry_cell_setting            triclinic
loop_
_symmetry_equiv_pos_as_xyz
  x,y,z
_cell_length_a                    7.4010
_cell_length_b                    7.4010
_cell_length_c                    15.0000
_cell_angle_alpha                 90.0000
_cell_angle_beta                  90.0000
_cell_angle_gamma                 120.0000
loop_
_atom_site_label
_atom_site_type_symbol
_atom_site_fract_x
_atom_site_fract_y
_atom_site_fract_z
_atom_site_U_iso_or_equiv
_atom_site_adp_type
_atom_site_occupancy
C1     C     0.11111   0.22222   0.50000   0.00000  Uiso   1.00
C2     C     0.22222   0.11111   0.50000   0.00000  Uiso   1.00
C3     C     0.44444   0.22222   0.50000   0.00000  Uiso   1.00
C4     C     0.55556   0.11111   0.50000   0.00000  Uiso   1.00
C5     C     0.77778   0.22222   0.50000   0.00000  Uiso   1.00
C6     C     0.88889   0.11111   0.50000   0.00000  Uiso   1.00
C7     C     0.11111   0.55556   0.50000   0.00000  Uiso   1.00
C8     C     0.22222   0.44444   0.50000   0.00000  Uiso   1.00
C9     C     0.44444   0.55556   0.50000   0.00000  Uiso   1.00
C10    C     0.55556   0.44444   0.50000   0.00000  Uiso   1.00
C11    C     0.77778   0.55556   0.50000   0.00000  Uiso   1.00
C12    C     0.88889   0.44444   0.50000   0.00000  Uiso   1.00
C13    C     0.11111   0.88889   0.50000   0.00000  Uiso   1.00
C14    C     0.22222   0.77778   0.50000   0.00000  Uiso   1.00
C15    C     0.44444   0.88889   0.50000   0.00000  Uiso   1.00
C16    C     0.55556   0.77778   0.50000   0.00000  Uiso   1.00
C17    C     0.77778   0.88889   0.50000   0.00000  Uiso   1.00
C18    C     0.88889   0.77778   0.50000   0.00000  Uiso   1.00
loop_
_geom_bond_atom_site_label_1
_geom_bond_atom_site_label_2
_geom_bond_distance
_geom_bond_site_symmetry_2
_ccdc_geom_bond_type
C1     C8      1.424   .     D
C1     C6      1.424   1_455 D
C1     C2      1.424   .     D
C2     C13     1.424   1_545 D
C2     C3      1.424   .     D
C3     C10     1.424   .     D
C3     C4      1.424   .     D
C4     C15     1.424   1_545 D
C4     C5      1.424   .     D
C5     C12     1.424   .     D
C5     C6      1.424   .     D
C6     C17     1.424   1_545 D
C6     C1      1.424   1_655 D
C7     C14     1.424   .     D
C7     C12     1.424   1_455 D
C7     C8      1.424   .     D
C8     C9      1.424   .     D
C9     C16     1.424   .     D
C9     C10     1.424   .     D
C10    C11     1.424   .     D
C11    C18     1.424   .     D
C11    C12     1.424   .     D
C12    C7      1.424   1_655 D
C13    C2      1.424   1_565 D
C13    C18     1.424   1_455 D
C13    C14     1.424   .     D
C14    C15     1.424   .     D
C15    C4      1.424   1_565 D
C15    C16     1.424   .     D
C16    C17     1.424   .     D
C17    C6      1.424   1_565 D
C17    C18     1.424   .     D
C18    C13     1.424   1_655 D
